    4
NiO Bulk with AFM spin                  
 NI  0.000000000000E+00 -2.082000000000E+00 -2.082000000000E+00
 NI -2.082000000000E+00 -2.082000000000E+00  0.000000000000E+00
 O  -2.082000000000E+00 -2.082000000000E+00 -2.082000000000E+00
 O   0.000000000000E+00 -2.082000000000E+00  0.000000000000E+00
    4
NiO Bulk with AFM spin                   E -3.1282834832786E+03 DE-1.3E-03( 16)
 NI  0.000000000000E+00 -2.203764312089E+00 -2.203764312089E+00
 NI -2.213823921629E+00 -2.203764312089E+00  0.000000000000E+00
 O  -2.213823921629E+00 -2.203764312089E+00 -2.203764312089E+00
 O   0.000000000000E+00 -2.203764312089E+00  0.000000000000E+00
    4
NiO Bulk with AFM spin                   E -3.1283163294929E+03 DE 2.1E-08( 11)
 NI  0.000000000000E+00 -2.191353909635E+00 -2.191353909635E+00
 NI -2.216868318574E+00 -2.191353909635E+00  0.000000000000E+00
 O  -2.216868318574E+00 -2.191353909635E+00 -2.191353909635E+00
 O   0.000000000000E+00 -2.191353909635E+00  0.000000000000E+00
    4
NiO Bulk with AFM spin                   E -3.1283176001726E+03 DE 1.4E-08(  8)
 NI  0.000000000000E+00 -2.186326117146E+00 -2.186326117146E+00
 NI -2.224250143462E+00 -2.186326117146E+00  0.000000000000E+00
 O  -2.224250143462E+00 -2.186326117146E+00 -2.186326117146E+00
 O   0.000000000000E+00 -2.186326117146E+00  0.000000000000E+00
    4
NiO Bulk with AFM spin                   E -3.1283177527458E+03 DE 1.3E-08(  7)
 NI  0.000000000000E+00 -2.172028910016E+00 -2.172028910016E+00
 NI -2.251217136516E+00 -2.172028910016E+00  0.000000000000E+00
 O  -2.251217136516E+00 -2.172028910016E+00 -2.172028910016E+00
 O   0.000000000000E+00 -2.172028910016E+00  0.000000000000E+00
    4
NiO Bulk with AFM spin                   E -3.1283179959925E+03 DE-2.9E-08(  8)
 NI  0.000000000000E+00 -2.172208620477E+00 -2.172208620477E+00
 NI -2.252277197315E+00 -2.172208620477E+00  0.000000000000E+00
 O  -2.252277197315E+00 -2.172208620477E+00 -2.172208620477E+00
 O   0.000000000000E+00 -2.172208620477E+00  0.000000000000E+00
    4
NiO Bulk with AFM spin                   E -3.1283179963205E+03 DE 2.0E-08(  4)
 NI  0.000000000000E+00 -2.172297158972E+00 -2.172297158972E+00
 NI -2.252372072396E+00 -2.172297158972E+00  0.000000000000E+00
 O  -2.252372072396E+00 -2.172297158972E+00 -2.172297158972E+00
 O   0.000000000000E+00 -2.172297158972E+00  0.000000000000E+00
    4
NiO Bulk with AFM spin                   E -3.1283179961313E+03 DE 1.1E-08(  3)
 NI  0.000000000000E+00 -2.172227848592E+00 -2.172227848592E+00
 NI -2.252305851716E+00 -2.172227848592E+00  0.000000000000E+00
 O  -2.252305851716E+00 -2.172227848592E+00 -2.172227848592E+00
 O   0.000000000000E+00 -2.172227848592E+00  0.000000000000E+00
    4
NiO Bulk with AFM spin                   E -3.1283179963759E+03 DE-1.5E-09(  3)
 NI  0.000000000000E+00 -2.172217289139E+00 -2.172217289139E+00
 NI -2.252384747502E+00 -2.172217289139E+00  0.000000000000E+00
 O  -2.252384747502E+00 -2.172217289139E+00 -2.172217289139E+00
 O   0.000000000000E+00 -2.172217289139E+00  0.000000000000E+00
    4
NiO Bulk with AFM spin                   E -3.1283179963610E+03 DE 3.3E-09(  3)
 NI  0.000000000000E+00 -2.173637637649E+00 -2.173637637649E+00
 NI -2.251527339757E+00 -2.173637637649E+00  0.000000000000E+00
 O  -2.251527339757E+00 -2.173637637649E+00 -2.173637637649E+00
 O   0.000000000000E+00 -2.173637637649E+00  0.000000000000E+00
    4
NiO Bulk with AFM spin                   E -3.1283182985922E+03 DE 2.9E-08(  3)
 NI  0.000000000000E+00 -2.172121542445E+00 -2.172121542445E+00
 NI -2.251157311781E+00 -2.172121542445E+00  0.000000000000E+00
 O  -2.251157311781E+00 -2.172121542445E+00 -2.172121542445E+00
 O   0.000000000000E+00 -2.172121542445E+00  0.000000000000E+00
    4
NiO Bulk with AFM spin                   E -3.1283183037779E+03 DE-1.7E-08(  5)
 NI  0.000000000000E+00 -2.173580983360E+00 -2.173580983360E+00
 NI -2.247195588218E+00 -2.173580983360E+00  0.000000000000E+00
 O  -2.247195588218E+00 -2.173580983360E+00 -2.173580983360E+00
 O   0.000000000000E+00 -2.173580983360E+00  0.000000000000E+00
    4
NiO Bulk with AFM spin                   E -3.1283183004506E+03 DE-6.7E-08(  6)
 NI  0.000000000000E+00 -2.172580203363E+00 -2.172580203363E+00
 NI -2.250254531548E+00 -2.172580203363E+00  0.000000000000E+00
 O  -2.250254531548E+00 -2.172580203363E+00 -2.172580203363E+00
 O   0.000000000000E+00 -2.172580203363E+00  0.000000000000E+00
    4
NiO Bulk with AFM spin                   E -3.1283183035322E+03 DE-1.9E-07(  3)
 NI  0.000000000000E+00 -2.172264216728E+00 -2.172264216728E+00
 NI -2.250969018310E+00 -2.172264216728E+00  0.000000000000E+00
 O  -2.250969018310E+00 -2.172264216728E+00 -2.172264216728E+00
 O   0.000000000000E+00 -2.172264216728E+00  0.000000000000E+00
    4
NiO Bulk with AFM spin                   E -3.1283183038450E+03 DE-7.7E-08(  3)
 NI  0.000000000000E+00 -2.172404164235E+00 -2.172404164235E+00
 NI -2.250776380705E+00 -2.172404164235E+00  0.000000000000E+00
 O  -2.250776380705E+00 -2.172404164235E+00 -2.172404164235E+00
 O   0.000000000000E+00 -2.172404164235E+00  0.000000000000E+00
    4
NiO Bulk with AFM spin                   E -3.1283183037454E+03 DE 8.3E-09(  3)
 NI  0.000000000000E+00 -2.172439687461E+00 -2.172439687461E+00
 NI -2.250729072380E+00 -2.172439687461E+00  0.000000000000E+00
 O  -2.250729072380E+00 -2.172439687461E+00 -2.172439687461E+00
 O   0.000000000000E+00 -2.172439687461E+00  0.000000000000E+00
    4
NiO Bulk with AFM spin                   E -3.1283183038334E+03 DE 4.4E-09(  3)
 NI  0.000000000000E+00 -2.172507056929E+00 -2.172507056929E+00
 NI -2.250628848217E+00 -2.172507056929E+00  0.000000000000E+00
 O  -2.250628848217E+00 -2.172507056929E+00 -2.172507056929E+00
 O   0.000000000000E+00 -2.172507056929E+00  0.000000000000E+00
    4
NiO Bulk with AFM spin                   E -3.1283183035480E+03 DE 5.7E-09(  3)
 NI  0.000000000000E+00 -2.172456695264E+00 -2.172456695264E+00
 NI -2.250704257397E+00 -2.172456695264E+00  0.000000000000E+00
 O  -2.250704257397E+00 -2.172456695264E+00 -2.172456695264E+00
 O   0.000000000000E+00 -2.172456695264E+00  0.000000000000E+00
    4
NiO Bulk with AFM spin                   E -3.1283183037768E+03 DE 3.7E-10(  3)
 NI  0.000000000000E+00 -2.173394406720E+00 -2.173394406720E+00
 NI -2.248921534835E+00 -2.173394406720E+00  0.000000000000E+00
 O  -2.248921534835E+00 -2.173394406720E+00 -2.173394406720E+00
 O   0.000000000000E+00 -2.173394406720E+00  0.000000000000E+00
    4
NiO Bulk with AFM spin                   E -3.1283182934031E+03 DE-2.2E-08(  4)
 NI  0.000000000000E+00 -2.173394406720E+00 -2.173394406720E+00
 NI -2.248921534835E+00 -2.173394406720E+00  0.000000000000E+00
 O  -2.248921534835E+00 -2.173394406720E+00 -2.173394406720E+00
 O   0.000000000000E+00 -2.173394406720E+00  0.000000000000E+00
